*version 9.1 2225838771
u 213
V? 3
D? 6
R? 3
C? 3
@libraries
@analysis
.TRAN 1 0 0 0
+0 0ns
+1 2ms
@targets
@attributes
@translators
a 0 u 13 0 0 0 hln 100 PCBOARDS=PCB
a 0 u 13 0 0 0 hln 100 PSPICE=PSPICE
a 0 u 13 0 0 0 hln 100 XILINX=XILINX
@setup
unconnectedPins 0
connectViaLabel 0
connectViaLocalLabels 0
NoStim4ExtIFPortsWarnings 1
AutoGenStim4ExtIFPorts 1
@index
pageloc 1 0 5104 
@status
n 0 121:01:11:01:58:19;1612987099 e 
s 0 121:01:11:01:58:28;1612987108 e 
*page 1 0 970 720 iA
@ports
port 5 EGND 730 170 h
port 61 EGND 260 280 h
@parts
part 3 D1N4002 700 80 h
a 0 sp 11 0 17 29 hln 100 PART=D1N4002
a 0 s 0:13 0 0 0 hln 100 PKGTYPE=DO-41
a 0 s 0:13 0 0 0 hln 100 GATE=
a 0 a 0:13 0 0 0 hln 100 PKGREF=D1
a 0 ap 9 0 17 4 hln 100 REFDES=D1
part 2 VSIN 630 110 h
a 0 a 0:13 0 0 0 hln 100 PKGREF=V1
a 1 ap 9 0 20 10 hcn 100 REFDES=V1
a 1 u 0 0 0 0 hcn 100 DC=0
a 1 u 0 0 0 0 hcn 100 AC=0
a 1 u 0 0 0 0 hcn 100 VOFF=0
a 1 u 0 0 0 0 hcn 100 VAMPL=12v
a 1 u 0 0 0 0 hcn 100 FREQ=1k
part 4 r 870 160 v
a 0 sp 0 0 0 10 hlb 100 PART=r
a 0 s 0:13 0 0 0 hln 100 PKGTYPE=RC05
a 0 s 0:13 0 0 0 hln 100 GATE=
a 0 a 0:13 0 0 0 hln 100 PKGREF=R1
a 0 ap 9 0 15 0 hln 100 REFDES=R1
part 24 c 800 150 v
a 0 sp 0 0 0 10 hlb 100 PART=c
a 0 s 0:13 0 0 0 hln 100 PKGTYPE=CK05
a 0 s 0:13 0 0 0 hln 100 GATE=
a 0 a 0:13 0 0 0 hln 100 PKGREF=C1
a 0 ap 9 0 15 0 hln 100 REFDES=C1
a 0 u 13 0 0 45 hln 100 VALUE=1000UFD
part 55 D1N4002 130 120 v
a 0 s 0:13 0 0 0 hln 100 PKGTYPE=DO-41
a 0 s 0:13 0 0 0 hln 100 GATE=
a 0 a 0:13 0 0 0 hln 100 PKGREF=D2
a 0 sp 11 0 7 64 hln 100 PART=D1N4002
a 0 ap 9 0 12 -11 hln 100 REFDES=D2
part 56 D1N4002 250 110 v
a 0 s 0:13 0 0 0 hln 100 PKGTYPE=DO-41
a 0 s 0:13 0 0 0 hln 100 GATE=
a 0 a 0:13 0 0 0 hln 100 PKGREF=D3
a 0 ap 9 0 7 -11 hln 100 REFDES=D3
a 0 sp 11 0 2 64 hln 100 PART=D1N4002
part 57 D1N4002 130 220 v
a 0 s 0:13 0 0 0 hln 100 PKGTYPE=DO-41
a 0 s 0:13 0 0 0 hln 100 GATE=
a 0 a 0:13 0 0 0 hln 100 PKGREF=D4
a 0 sp 11 0 7 64 hln 100 PART=D1N4002
a 0 ap 9 0 12 -21 hln 100 REFDES=D4
part 58 D1N4002 250 220 v
a 0 s 0:13 0 0 0 hln 100 PKGTYPE=DO-41
a 0 s 0:13 0 0 0 hln 100 GATE=
a 0 a 0:13 0 0 0 hln 100 PKGREF=D5
a 0 ap 9 0 12 -16 hln 100 REFDES=D5
a 0 sp 11 0 7 64 hln 100 PART=D1N4002
part 60 VSIN 60 130 h
a 0 a 0:13 0 0 0 hln 100 PKGREF=V2
a 1 ap 9 0 20 10 hcn 100 REFDES=V2
a 1 u 0 0 0 0 hcn 100 DC=0
a 1 u 0 0 0 0 hcn 100 AC=0
a 1 u 0 0 0 0 hcn 100 VOFF=0
a 1 u 0 0 0 0 hcn 100 VAMPL=12v
a 1 u 0 0 0 0 hcn 100 FREQ=1k
part 59 r 440 180 v
a 0 sp 0 0 0 10 hlb 100 PART=r
a 0 s 0:13 0 0 0 hln 100 PKGTYPE=RC05
a 0 s 0:13 0 0 0 hln 100 GATE=
a 0 a 0:13 0 0 0 hln 100 PKGREF=R2
a 0 ap 9 0 15 0 hln 100 REFDES=R2
part 198 c 340 170 v
a 0 sp 0 0 0 10 hlb 100 PART=c
a 0 s 0:13 0 0 0 hln 100 PKGTYPE=CK05
a 0 s 0:13 0 0 0 hln 100 GATE=
a 0 a 0:13 0 0 0 hln 100 PKGREF=C2
a 0 ap 9 0 15 -15 hln 100 REFDES=C2
a 0 u 13 0 15 60 hln 100 VALUE=220UFD
part 1 titleblk 970 720 h
a 1 s 13 0 350 10 hcn 100 PAGESIZE=A
a 1 s 13 0 180 60 hcn 100 PAGETITLE=
a 1 s 13 0 300 95 hrn 100 PAGENO=1
a 1 s 13 0 340 95 hrn 100 PAGECOUNT=1
@conn
w 11
a 0 sr 0 0 0 0 hln 100 LABEL=Vin
a 0 up 0:33 0 0 0 hln 100 V=
s 630 80 630 110 12
a 0 sr 3 0 632 95 hln 100 LABEL=Vin
s 700 80 630 80 10
a 0 up 33 0 665 79 hct 100 V=
w 7
a 0 sr 0:3 0 432 90 hln 100 LABEL=Vout
a 0 up 0:33 0 0 0 hln 100 V=
s 870 80 870 120 8
a 0 sr 3 0 872 100 hln 100 LABEL=Vout
s 730 80 800 80 6
a 0 up 33 0 785 79 hct 100 V=
s 800 120 800 80 25
s 800 80 870 80 27
w 15
a 0 up 0:33 0 0 0 hln 100 V=
s 630 150 630 170 14
s 630 170 730 170 18
s 730 170 800 170 22
a 0 up 33 0 785 169 hct 100 V=
s 800 150 800 170 28
s 870 170 870 160 19
s 800 170 870 170 30
w 175
a 0 up 0:33 0 0 0 hln 100 V=
s 130 170 130 190 163
s 130 120 130 170 116
s 60 170 130 170 146
a 0 up 33 0 95 169 hct 100 V=
w 124
a 0 sr 0 0 0 0 hln 100 LABEL=Vin1
a 0 up 0:33 0 0 0 hln 100 V=
s 60 130 250 130 139
a 0 sr 3 0 85 123 hcn 100 LABEL=Vin1
a 0 up 33 0 85 124 hct 100 V=
s 250 110 250 130 123
s 250 130 250 190 141
w 182
a 0 up 0:33 0 0 0 hln 100 V=
a 0 sr 0:3 0 457 80 hln 100 LABEL=Vout1
s 440 140 440 30 181
a 0 sr 3 0 457 80 hln 100 LABEL=Vout1
a 0 up 33 0 457 81 hlt 100 V=
s 130 70 130 90 127
s 250 70 250 80 178
s 250 70 180 70 125
s 180 70 130 70 187
s 180 30 180 70 185
s 340 30 180 30 205
s 340 30 340 140 203
s 440 30 340 30 183
w 189
a 0 up 0:33 0 0 0 hln 100 V=
s 130 220 130 250 172
s 130 250 180 250 119
s 250 250 250 220 121
s 180 250 250 250 196
s 180 280 180 250 194
s 260 280 180 280 197
s 340 280 260 280 208
s 340 170 340 280 206
s 440 180 440 280 188
a 0 up 33 0 442 230 hlt 100 V=
s 440 280 340 280 192
@junction
j 630 110
+ p 2 +
+ w 11
j 700 80
+ p 3 1
+ w 11
j 870 120
+ p 4 2
+ w 7
j 730 80
+ p 3 2
+ w 7
j 800 120
+ p 24 2
+ w 7
j 800 80
+ w 7
+ w 7
j 630 150
+ p 2 -
+ w 15
j 730 170
+ s 5
+ w 15
j 800 150
+ p 24 1
+ w 15
j 870 160
+ p 4 1
+ w 15
j 800 170
+ w 15
+ w 15
j 250 110
+ p 56 1
+ w 124
j 60 130
+ p 60 +
+ w 124
j 130 120
+ p 55 1
+ w 175
j 60 170
+ p 60 -
+ w 175
j 130 170
+ w 175
+ w 175
j 130 190
+ p 57 2
+ w 175
j 250 190
+ p 58 2
+ w 124
j 250 130
+ w 124
+ w 124
j 130 90
+ p 55 2
+ w 182
j 250 80
+ p 56 2
+ w 182
j 180 70
+ w 182
+ w 182
j 130 220
+ p 57 1
+ w 189
j 250 220
+ p 58 1
+ w 189
j 180 250
+ w 189
+ w 189
j 260 280
+ s 61
+ w 189
j 340 140
+ p 198 2
+ w 182
j 340 170
+ p 198 1
+ w 189
j 440 140
+ p 59 2
+ w 182
j 340 30
+ w 182
+ w 182
j 440 180
+ p 59 1
+ w 189
j 340 280
+ w 189
+ w 189
@attributes
a 0 s 0:13 0 0 0 hln 100 PAGETITLE=
a 0 s 0:13 0 0 0 hln 100 PAGENO=1
a 0 s 0:13 0 0 0 hln 100 PAGESIZE=A
a 0 s 0:13 0 0 0 hln 100 PAGECOUNT=1
@graphics
